<routes>
    <!-- Static pages routes -->
    <about type="Zend_Controller_Router_Route">
        <route>/about</route>
        <defaults module="frontend" controller="index" action="static" page="about" />
    </about>
    
    <terms type="Zend_Controller_Router_Route">
        <route>/terms</route>
        <defaults module="frontend" controller="index" action="static" page="terms" />
    </terms>
    
    <faq type="Zend_Controller_Router_Route">
        <route>/faq</route>
        <defaults module="frontend" controller="index" action="static" page="faq" />
    </faq>
    
    <help type="Zend_Controller_Router_Route">
        <route>/help</route>
        <defaults module="frontend" controller="index" action="static" page="help" />
    </help>
</routes>